12

C         -3.96539        2.03251       -0.00000
C         -3.89731        0.63935        0.00000
C         -2.65675        0.00174        0.00000
C         -1.48428        0.75730        0.00000
C         -1.55237        2.15046        0.00000
C         -2.79292        2.78807        0.00000
H         -4.93194        2.52925       -0.00000
H         -4.81080        0.05069        0.00000
H         -0.63889        2.73915        0.00000
H         -2.84593        3.87351       -0.00000
H         -2.60373       -1.08370        0.00000
H         -0.51774        0.26054        0.00000
