20

C         -7.15426        2.09537        0.00000
H         -6.08426        2.09537        0.00000
H         -7.51093        1.51405       -0.82448
H         -7.51093        3.10004       -0.09120
H         -7.51093        1.67201        0.91567
C         -1.07591        2.56348        0.00000
H         -0.00591        2.56348        0.00000
H         -1.43258        1.66765        0.46387
H         -1.43258        2.60967       -1.00775
H         -1.43258        3.41312        0.54388
C         -3.44958       -0.91394        0.00000
H         -2.37958       -0.91394        0.00000
H         -3.80624        0.06984        0.22332
H         -3.80624       -1.59922        0.74032
H         -3.80624       -1.21243       -0.96363
C          1.45304       -0.42353        0.00000
H          2.52304       -0.42353        0.00000
H          1.09637        0.39717        0.58663
H          1.09637       -1.34192        0.41744
H          1.09637       -0.32585       -1.00406
